Scots/data/case_de.py
from numpy import array
def case_de():
	ppc = {"version": '2'}
	ppc["baseMVA"] = 100.0
	ppc["bus"] = array([
		[321.0,  2.0, 154.11,   30.82,    0.0,    0.0,    5.0, 1.0,      0.0,      220.0,    0.0, 1.1,      0.9,      0.6, 10   ],
		[440.0,  2.0, 58.63,    11.73,    0.0,    0.0,    5.0, 1.0,      0.0,      220.0,    0.0, 1.1,      0.9,      0.6, 10   ],
		[429.0,  2.0, 257.75,   51.55,    0.0,    0.0,    5.0, 1.0,      0.0,      220.0,    0.0, 1.1,      0.9,      0.6, 10   ],
		[346.0,  2.0, 236.59,   47.32,    0.0,    0.0,    5.0, 1.0,      0.0,      380.0,    0.0, 1.1,      0.9,      0.6, 10   ],
		[277.0,  1.0, 0.0,      0.0,      0.0,    0.0,    5.0, 0.998,    0.0,      380.0,    0.0, 1.1,      0.9,      0.6, 10   ],
		[340.0,  2.0, 101.04,   20.21,    0.0,    0.0,    5.0, 1.0,      0.0,      220.0,    0.0, 1.1,      0.9,      0.6, 10   ],
		[40.0,   2.0, 52.82,    10.56,    0.0,    0.0,    5.0, 1.0,      0.0,      380.0,    0.0, 1.1,      0.9,      0.6, 10   ],
		[180.0,  2.0, 35.67,    7.13,     0.0,    0.0,    5.0, 1.0,      0.0,      220.0,    0.0, 1.1,      0.9,      0.6, 10   ],
		[498.0,  2.0, 35.42,    7.08,     0.0,    0.0,    5.0, 1.0,      0.0,      220.0,    0.0, 1.1,      0.9,      0.6, 10   ],
		[492.0,  2.0, 61.48,    12.3,     0.0,    0.0,    5.0, 1.0,      0.0,      220.0,    0.0, 1.1,      0.9,      0.6, 10   ],
		[44.0,   2.0, 111.38,   22.28,    0.0,    0.0,    5.0, 1.0,      0.0,      220.0,    0.0, 1.1,      0.9,      0.6, 10   ],
		[21.0,   2.0, 715.99,   143.2,    0.0,    0.0,    5.0, 1.0,      0.0,      380.0,    0.0, 1.1,      0.9,      0.6, 10   ],
		[279.0,  1.0, 0.0,      0.0,      0.0,    0.0,    5.0, 0.9978,   0.0,      380.0,    0.0, 1.1,      0.9,      0.6, 10   ],
		[181.0,  2.0, 26.92,    5.38,     0.0,    0.0,    5.0, 1.0,      0.0,      220.0,    0.0, 1.1,      0.9,      0.6, 10   ],
		[288.0,  2.0, 47.85,    9.57,     0.0,    0.0,    5.0, 1.0,      0.0,      380.0,    0.0, 1.1,      0.9,      0.6, 10   ],
		[276.0,  2.0, 146.04,   29.21,    0.0,    0.0,    5.0, 1.0,      0.0,      220.0,    0.0, 1.1,      0.9,      0.6, 10   ],
		[559.0,  2.0, 54.54,    10.91,    0.0,    0.0,    5.0, 1.0,      0.0,      220.0,    0.0, 1.1,      0.9,      0.6, 10   ],
		[73.0,   2.0, 65.55,    13.11,    0.0,    0.0,    5.0, 1.0,      0.0,      380.0,    0.0, 1.1,      0.9,      0.6, 10   ],
		[39.0,   3.0, 50.57,    10.11,    0.0,    0.0,    5.0, 1.0,      0.0,      380.0,    0.0, 1.1,      0.9,      0.6, 10   ],
		[183.0,  2.0, 365.08,   73.02,    0.0,    0.0,    5.0, 1.0,      0.0,      380.0,    0.0, 1.1,      0.9,      0.6, 10   ],
		[291.0,  2.0, 49.52,    9.9,      0.0,    0.0,    5.0, 1.0,      0.0,      220.0,    0.0, 1.1,      0.9,      0.6, 10   ],
		[441.0,  2.0, 44.95,    8.99,     0.0,    0.0,    5.0, 1.0,      0.0,      220.0,    0.0, 1.1,      0.9,      0.6, 10   ],
		[558.0,  2.0, 101.91,   20.38,    0.0,    0.0,    5.0, 1.0,      0.0,      220.0,    0.0, 1.1,      0.9,      0.6, 10   ],
		[179.0,  2.0, 40.58,    8.12,     0.0,    0.0,    5.0, 1.0,      0.0,      220.0,    0.0, 1.1,      0.9,      0.6, 10   ],
		[497.0,  2.0, 755.16,   151.03,   0.0,    0.0,    5.0, 1.0,      0.0,      220.0,    0.0, 1.1,      0.9,      0.6, 10   ],
		[292.0,  2.0, 97.63,    19.53,    0.0,    0.0,    5.0, 1.0,      0.0,      380.0,    0.0, 1.1,      0.9,      0.6, 10   ],
		[177.0,  2.0, 20.79,    4.16,     0.0,    0.0,    5.0, 1.0,      0.0,      220.0,    0.0, 1.1,      0.9,      0.6, 10   ],
		[436.0,  2.0, 60.96,    12.19,    0.0,    0.0,    5.0, 1.0,      0.0,      380.0,    0.0, 1.1,      0.9,      0.6, 10   ],
		[569.0,  2.0, 141.43,   28.29,    0.0,    0.0,    5.0, 1.0,      0.0,      220.0,    0.0, 1.1,      0.9,      0.6, 10   ],
		[81.0,   2.0, 94.56,    18.91,    0.0,    0.0,    5.0, 1.0,      0.0,      380.0,    0.0, 1.1,      0.9,      0.6, 10   ],
		[22.0,   1.0, 0.0,      0.0,      0.0,    0.0,    5.0, 1.0006,   0.0,      380.0,    0.0, 1.1,      0.9,      0.6, 10   ],
		[338.0,  2.0, 193.23,   38.65,    0.0,    0.0,    5.0, 1.0,      0.0,      220.0,    0.0, 1.1,      0.9,      0.6, 10   ],
		[435.0,  2.0, 114.19,   22.84,    0.0,    0.0,    5.0, 1.0,      0.0,      380.0,    0.0, 1.1,      0.9,      0.6, 10   ],
		[311.0,  2.0, 150.58,   30.12,    0.0,    0.0,    5.0, 1.0,      0.0,      380.0,    0.0, 1.1,      0.9,      0.6, 10   ],
		[505.0,  2.0, 257.08,   51.42,    0.0,    0.0,    5.0, 1.0,      0.0,      220.0,    0.0, 1.1,      0.9,      0.6, 10   ],
		[217.0,  2.0, 30.84,    6.17,     0.0,    0.0,    5.0, 1.0,      0.0,      380.0,    0.0, 1.1,      0.9,      0.6, 10   ],
		[363.0,  2.0, 241.17,   48.23,    0.0,    0.0,    5.0, 1.0,      0.0,      380.0,    0.0, 1.1,      0.9,      0.6, 10   ],
		[339.0,  2.0, 119.51,   23.9,     0.0,    0.0,    5.0, 1.0,      0.0,      220.0,    0.0, 1.1,      0.9,      0.6, 10   ],
		[45.0,   2.0, 59.12,    11.82,    0.0,    0.0,    5.0, 1.0,      0.0,      220.0,    0.0, 1.1,      0.9,      0.6, 10   ],
		[511.0,  2.0, 81.04,    16.21,    0.0,    0.0,    5.0, 1.0,      0.0,      220.0,    0.0, 1.1,      0.9,      0.6, 10   ],
		[74.0,   1.0, 0.0,      0.0,      0.0,    0.0,    5.0, 1.0036,   0.0,      380.0,    0.0, 1.1,      0.9,      0.6, 10   ],
		[43.0,   2.0, 87.06,    17.41,    0.0,    0.0,    5.0, 1.0,      0.0,      220.0,    0.0, 1.1,      0.9,      0.6, 10   ],
		[17.0,   2.0, 67.39,    13.48,    0.0,    0.0,    5.0, 1.0,      0.0,      380.0,    0.0, 1.1,      0.9,      0.6, 10   ],
		[503.0,  2.0, 55.35,    11.07,    0.0,    0.0,    5.0, 1.0,      0.0,      220.0,    0.0, 1.1,      0.9,      0.6, 10   ],
		[504.0,  2.0, 36.24,    7.25,     0.0,    0.0,    5.0, 1.0,      0.0,      220.0,    0.0, 1.1,      0.9,      0.6, 10   ],
		[102.0,  2.0, 109.55,   21.91,    0.0,    0.0,    5.0, 1.0,      0.0,      380.0,    0.0, 1.1,      0.9,      0.6, 10   ],
		[75.0,   2.0, 81.7,     16.34,    0.0,    0.0,    5.0, 1.0,      0.0,      380.0,    0.0, 1.1,      0.9,      0.6, 10   ],
		[20.0,   1.0, 0.0,      0.0,      0.0,    0.0,    5.0, 0.999,    0.0,      380.0,    0.0, 1.1,      0.9,      0.6, 10   ],
		[8.0,    2.0, 118.39,   23.68,    0.0,    0.0,    5.0, 1.0,      0.0,      380.0,    0.0, 1.1,      0.9,      0.6, 10   ],
		[37.0,   1.0, 0.0,      0.0,      0.0,    0.0,    5.0, 0.9987,   0.0,      380.0,    0.0, 1.1,      0.9,      0.6, 10   ],
		[343.0,  2.0, 86.93,    17.39,    0.0,    0.0,    5.0, 1.0,      0.0,      220.0,    0.0, 1.1,      0.9,      0.6, 10   ],
		[46.0,   1.0, 0.0,      0.0,      0.0,    0.0,    5.0, 1.0001,   0.0,      380.0,    0.0, 1.1,      0.9,      0.6, 10   ],
		[71.0,   2.0, 125.01,   25.0,     0.0,    0.0,    5.0, 1.0,      0.0,      380.0,    0.0, 1.1,      0.9,      0.6, 10   ],
		[560.0,  2.0, 85.21,    17.04,    0.0,    0.0,    5.0, 1.0,      0.0,      220.0,    0.0, 1.1,      0.9,      0.6, 10   ],
		[493.0,  2.0, 79.25,    15.85,    0.0,    0.0,    5.0, 1.0,      0.0,      220.0,    0.0, 1.1,      0.9,      0.6, 10   ],
		[496.0,  2.0, 6.04,     1.21,     0.0,    0.0,    5.0, 1.0,      0.0,      220.0,    0.0, 1.1,      0.9,      0.6, 10   ],
		[18.0,   1.0, 0.0,      0.0,      0.0,    0.0,    5.0, 1.0025,   0.0,      380.0,    0.0, 1.1,      0.9,      0.6, 10   ],
		[78.0,   1.0, 0.0,      0.0,      0.0,    0.0,    5.0, 0.9941,   0.0,      380.0,    0.0, 1.1,      0.9,      0.6, 10   ],
		[33.0,   2.0, 147.4,    29.48,    0.0,    0.0,    5.0, 1.0,      0.0,      380.0,    0.0, 1.1,      0.9,      0.6, 10   ],
		[322.0,  2.0, 19.62,    3.92,     0.0,    0.0,    5.0, 1.0,      0.0,      380.0,    0.0, 1.1,      0.9,      0.6, 10   ],
		[80.0,   2.0, 83.77,    16.75,    0.0,    0.0,    5.0, 1.0,      0.0,      380.0,    0.0, 1.1,      0.9,      0.6, 10   ],
		[325.0,  2.0, 117.54,   23.51,    0.0,    0.0,    5.0, 1.0,      0.0,      380.0,    0.0, 1.1,      0.9,      0.6, 10   ],
		[502.0,  2.0, 180.72,   36.14,    0.0,    0.0,    5.0, 1.0,      0.0,      220.0,    0.0, 1.1,      0.9,      0.6, 10   ],
		[47.0,   2.0, 257.08,   51.42,    0.0,    0.0,    5.0, 1.0,      0.0,      380.0,    0.0, 1.1,      0.9,      0.6, 10   ],
		[101.0,  2.0, 56.6,     11.32,    0.0,    0.0,    5.0, 1.0,      0.0,      380.0,    0.0, 1.1,      0.9,      0.6, 10   ],
		[341.0,  2.0, 91.34,    18.27,    0.0,    0.0,    5.0, 1.0,      0.0,      380.0,    0.0, 1.1,      0.9,      0.6, 10   ],
		[345.0,  2.0, 238.32,   47.66,    0.0,    0.0,    5.0, 1.0,      0.0,      380.0,    0.0, 1.1,      0.9,      0.6, 10   ],
		[98.0,   2.0, 79.93,    15.99,    0.0,    0.0,    5.0, 1.0,      0.0,      380.0,    0.0, 1.1,      0.9,      0.6, 10   ],
		[72.0,   2.0, 204.76,   40.95,    0.0,    0.0,    5.0, 1.0,      0.0,      380.0,    0.0, 1.1,      0.9,      0.6, 10   ],
		[11.0,   2.0, 70.15,    14.03,    0.0,    0.0,    5.0, 1.0,      0.0,      220.0,    0.0, 1.1,      0.9,      0.6, 10   ],
		[512.0,  2.0, 53.53,    10.71,    0.0,    0.0,    5.0, 1.0,      0.0,      220.0,    0.0, 1.1,      0.9,      0.6, 10   ],
		[42.0,   1.0, 0.0,      0.0,      0.0,    0.0,    5.0, 1.0011,   0.0,      380.0,    0.0, 1.1,      0.9,      0.6, 10   ],
		[280.0,  1.0, 0.0,      0.0,      0.0,    0.0,    5.0, 0.9994,   0.0,      380.0,    0.0, 1.1,      0.9,      0.6, 10   ],
		[290.0,  1.0, 0.0,      0.0,      0.0,    0.0,    5.0, 1.0028,   0.0,      380.0,    0.0, 1.1,      0.9,      0.6, 10   ],
		[344.0,  2.0, 217.95,   43.59,    0.0,    0.0,    5.0, 1.0,      0.0,      380.0,    0.0, 1.1,      0.9,      0.6, 10   ],
		[10.0,   1.0, 0.0,      0.0,      0.0,    0.0,    5.0, 1.0023,   0.0,      380.0,    0.0, 1.1,      0.9,      0.6, 10   ],
		[32.0,   1.0, 0.0,      0.0,      0.0,    0.0,    5.0, 0.993,    0.0,      380.0,    0.0, 1.1,      0.9,      0.6, 10   ],
		[557.0,  2.0, 172.83,   34.57,    0.0,    0.0,    5.0, 1.0,      0.0,      220.0,    0.0, 1.1,      0.9,      0.6, 10   ],
		[41.0,   2.0, 56.77,    11.35,    0.0,    0.0,    5.0, 1.0,      0.0,      380.0,    0.0, 1.1,      0.9,      0.6, 10   ],
		[79.0,   2.0, 78.87,    15.77,    0.0,    0.0,    5.0, 1.0,      0.0,      380.0,    0.0, 1.1,      0.9,      0.6, 10   ],
		[12.0,   1.0, 0.0,      0.0,      0.0,    0.0,    5.0, 1.0008,   0.0,      380.0,    0.0, 1.1,      0.9,      0.6, 10   ],
		[278.0,  2.0, 114.01,   22.8,     0.0,    0.0,    5.0, 1.0,      0.0,      380.0,    0.0, 1.1,      0.9,      0.6, 10   ],
		[31.0,   2.0, 117.56,   23.51,    0.0,    0.0,    0.0, 1.0,      0.0,      380.0,    0.0, 1.1,      0.9,      0.6, 10   ],
		[192.0,  2.0, 42.78,    8.56,     0.0,    0.0,    0.0, 1.0,      0.0,      220.0,    0.0, 1.1,      0.9,      0.6, 10   ],
		[182.0,  2.0, 1.22,     0.24,     0.0,    0.0,    0.0, 1.0,      0.0,      220.0,    0.0, 1.1,      0.9,      0.6, 10   ],
		[342.0,  2.0, 158.45,   31.69,    0.0,    0.0,    0.0, 1.0,      0.0,      220.0,    0.0, 1.1,      0.9,      0.6, 10   ],
		[332.0,  1.0, 0.0,      0.0,      0.0,    0.0,    0.0, 0.9941,   0.0,      380.0,    0.0, 1.1,      0.9,      0.6, 10   ],
		[9.0,    2.0, 80.07,    16.01,    0.0,    0.0,    0.0, 1.0,      0.0,      380.0,    0.0, 1.1,      0.9,      0.6, 10   ],
		[289.0,  2.0, 75.25,    15.05,    0.0,    0.0,    0.0, 1.0,      0.0,      380.0,    0.0, 1.1,      0.9,      0.6, 10   ],
		[218.0,  2.0, 93.95,    18.79,    0.0,    0.0,    0.0, 1.0,      0.0,      220.0,    0.0, 1.1,      0.9,      0.6, 10   ],
		[25.0,   2.0, 44.84,    8.97,     0.0,    0.0,    0.0, 1.0,      0.0,      380.0,    0.0, 1.1,      0.9,      0.6, 10   ],
		[49.0,   2.0, 44.7,     8.94,     0.0,    0.0,    0.0, 1.0,      0.0,      380.0,    0.0, 1.1,      0.9,      0.6, 10   ],
		[38.0,   2.0, 154.44,   30.89,    0.0,    0.0,    0.0, 1.0,      0.0,      380.0,    0.0, 1.1,      0.9,      0.6, 10   ],
		[570.0,  2.0, 220.79,   44.16,    0.0,    0.0,    0.0, 1.0,      0.0,      220.0,    0.0, 1.1,      0.9,      0.6, 10   ],
		[422.0,  2.0, 58.83,    11.77,    0.0,    0.0,    0.0, 1.0,      0.0,      380.0,    0.0, 1.1,      0.9,      0.6, 10   ],
		[23.0,   2.0, 93.75,    18.75,    0.0,    0.0,    0.0, 1.0,      0.0,      220.0,    0.0, 1.1,      0.9,      0.6, 10   ],
		[65.0,   2.0, 4.18,     0.84,     0.0,    0.0,    0.0, 1.0,      0.0,      380.0,    0.0, 1.1,      0.9,      0.6, 10   ],
		[30.0,   1.0, 0.0,      0.0,      0.0,    0.0,    0.0, 0.9981,   0.0,      380.0,    0.0, 1.1,      0.9,      0.6, 10   ],
		[324.0,  2.0, 360.84,   72.17,    0.0,    0.0,    0.0, 1.0,      0.0,      380.0,    0.0, 1.1,      0.9,      0.6, 10   ],
		[400.0,  2.0, 42.8,     8.56,     0.0,    0.0,    0.0, 1.0,      0.0,      220.0,    0.0, 1.1,      0.9,      0.6, 10   ],
		[48.0,   2.0, 176.71,   35.34,    0.0,    0.0,    0.0, 1.0,      0.0,      380.0,    0.0, 1.1,      0.9,      0.6, 10   ],
		[323.0,  2.0, 2.04,     0.41,     0.0,    0.0,    0.0, 1.0,      0.0,      380.0,    0.0, 1.1,      0.9,      0.6, 10   ]
	])
	ppc["gen"] = array([
		[102.0,  0.0,      0.0,      33.95,    -8.49,    1.0,      100.0,  1.0, 67.9,     0.0,      0, 0, 0, 0, 0, 0, 0, 0, 0, 0, 0, 20.37,    27.16     ],
		[493.0,  0.0,      0.0,      75.0,     -18.75,   1.0,      100.0,  1.0, 150.0,    0.0,      0, 0, 0, 0, 0, 0, 0, 0, 0, 0, 0, 45.0,     60.0      ],
		[493.0,  0.0,      0.0,      15.0,     -3.75,    1.0,      100.0,  1.0, 30.0,     0.0,      0, 0, 0, 0, 0, 0, 0, 0, 0, 0, 0, 9.0,      12.0      ],
		[177.0,  0.0,      0.0,      16.35,    -4.09,    1.0,      100.0,  1.0, 32.7,     0.0,      0, 0, 0, 0, 0, 0, 0, 0, 0, 0, 0, 9.81,     13.08     ],
		[180.0,  0.0,      0.0,      12.7,     -3.18,    1.0,      100.0,  1.0, 25.4,     0.0,      0, 0, 0, 0, 0, 0, 0, 0, 0, 0, 0, 7.62,     10.16     ],
		[180.0,  0.0,      0.0,      166.75,   -41.69,   1.0,      100.0,  1.0, 333.5,    0.0,      0, 0, 0, 0, 0, 0, 0, 0, 0, 0, 0, 100.05,   133.4     ],
		[180.0,  0.0,      0.0,      14.45,    -3.61,    1.0,      100.0,  1.0, 28.9,     0.0,      0, 0, 0, 0, 0, 0, 0, 0, 0, 0, 0, 8.67,     11.56     ],
		[183.0,  0.0,      0.0,      11.25,    -2.81,    1.0,      100.0,  1.0, 22.5,     0.0,      0, 0, 0, 0, 0, 0, 0, 0, 0, 0, 0, 6.75,     9.0       ],
		[183.0,  0.0,      0.0,      383.0,    -95.75,   1.0,      100.0,  1.0, 766.0,    0.0,      0, 0, 0, 0, 0, 0, 0, 0, 0, 0, 0, 229.8,    306.4     ],
		[183.0,  0.0,      0.0,      19.0,     -4.75,    1.0,      100.0,  1.0, 38.0,     0.0,      0, 0, 0, 0, 0, 0, 0, 0, 0, 0, 0, 11.4,     15.2      ],
		[183.0,  0.0,      0.0,      12.0,     -3.0,     1.0,      100.0,  1.0, 24.0,     0.0,      0, 0, 0, 0, 0, 0, 0, 0, 0, 0, 0, 7.2,      9.6       ],
		[496.0,  0.0,      0.0,      26.4,     -6.6,     1.0,      100.0,  1.0, 52.8,     0.0,      0, 0, 0, 0, 0, 0, 0, 0, 0, 0, 0, 15.84,    21.12     ],
		[21.0,   0.0,      0.0,      63.5,     -15.88,   1.0,      100.0,  1.0, 127.0,    0.0,      0, 0, 0, 0, 0, 0, 0, 0, 0, 0, 0, 38.1,     50.8      ],
		[21.0,   0.0,      0.0,      97.0,     -24.25,   1.0,      100.0,  1.0, 194.0,    0.0,      0, 0, 0, 0, 0, 0, 0, 0, 0, 0, 0, 58.2,     77.6      ],
		[21.0,   0.0,      0.0,      8.2,      -2.05,    1.0,      100.0,  1.0, 16.4,     0.0,      0, 0, 0, 0, 0, 0, 0, 0, 0, 0, 0, 4.92,     6.56      ],
		[217.0,  0.0,      0.0,      54.0,     -13.5,    1.0,      100.0,  1.0, 108.0,    0.0,      0, 0, 0, 0, 0, 0, 0, 0, 0, 0, 0, 32.4,     43.2      ],
		[217.0,  0.0,      0.0,      254.0,    -63.5,    1.0,      100.0,  1.0, 508.0,    0.0,      0, 0, 0, 0, 0, 0, 0, 0, 0, 0, 0, 152.4,    203.2     ],
		[217.0,  0.0,      0.0,      8.5,      -2.12,    1.0,      100.0,  1.0, 17.0,     0.0,      0, 0, 0, 0, 0, 0, 0, 0, 0, 0, 0, 5.1,      6.8       ],
		[498.0,  0.0,      0.0,      149.25,   -37.31,   1.0,      100.0,  1.0, 298.5,    0.0,      0, 0, 0, 0, 0, 0, 0, 0, 0, 0, 0, 89.55,    119.4     ],
		[557.0,  90.8,     0.0,      45.4,     -11.35,   1.0,      100.0,  1.0, 90.8,     0.0,      0, 0, 0, 0, 0, 0, 0, 0, 0, 0, 0, 27.24,    36.32     ],
		[558.0,  0.0,      0.0,      37.0,     -9.25,    1.0,      100.0,  1.0, 74.0,     0.0,      0, 0, 0, 0, 0, 0, 0, 0, 0, 0, 0, 22.2,     29.6      ],
		[559.0,  0.0,      0.0,      8.5,      -2.12,    1.0,      100.0,  1.0, 17.0,     0.0,      0, 0, 0, 0, 0, 0, 0, 0, 0, 0, 0, 5.1,      6.8       ],
		[288.0,  15.7,     0.0,      7.85,     -1.96,    1.0,      100.0,  1.0, 15.7,     0.0,      0, 0, 0, 0, 0, 0, 0, 0, 0, 0, 0, 4.71,     6.28      ],
		[289.0,  1105.0,   0.0,      552.5,    -138.12,  1.0,      100.0,  1.0, 1105.0,   0.0,      0, 0, 0, 0, 0, 0, 0, 0, 0, 0, 0, 331.5,    442.0     ],
		[560.0,  0.0,      0.0,      10.15,    -2.54,    1.0,      100.0,  1.0, 20.3,     0.0,      0, 0, 0, 0, 0, 0, 0, 0, 0, 0, 0, 6.09,     8.12      ],
		[560.0,  0.0,      0.0,      108.0,    -27.0,    1.0,      100.0,  1.0, 216.0,    0.0,      0, 0, 0, 0, 0, 0, 0, 0, 0, 0, 0, 64.8,     86.4      ],
		[560.0,  0.0,      0.0,      29.5,     -7.38,    1.0,      100.0,  1.0, 59.0,     0.0,      0, 0, 0, 0, 0, 0, 0, 0, 0, 0, 0, 17.7,     23.6      ],
		[292.0,  0.0,      0.0,      6.75,     -1.69,    1.0,      100.0,  1.0, 13.5,     0.0,      0, 0, 0, 0, 0, 0, 0, 0, 0, 0, 0, 4.05,     5.4       ],
		[292.0,  11.2,     0.0,      5.6,      -1.4,     1.0,      100.0,  1.0, 11.2,     0.0,      0, 0, 0, 0, 0, 0, 0, 0, 0, 0, 0, 3.36,     4.48      ],
		[31.0,   0.0,      0.0,      97.7,     -24.42,   1.0,      100.0,  1.0, 195.4,    0.0,      0, 0, 0, 0, 0, 0, 0, 0, 0, 0, 0, 58.62,    78.16     ],
		[311.0,  875.0,    0.0,      437.5,    -109.38,  1.0,      100.0,  1.0, 875.0,    0.0,      0, 0, 0, 0, 0, 0, 0, 0, 0, 0, 0, 262.5,    350.0     ],
		[321.0,  0.0,      0.0,      6.45,     -1.61,    1.0,      100.0,  1.0, 12.9,     0.0,      0, 0, 0, 0, 0, 0, 0, 0, 0, 0, 0, 3.87,     5.16      ],
		[324.0,  0.0,      0.0,      159.9,    -39.98,   1.0,      100.0,  1.0, 319.8,    0.0,      0, 0, 0, 0, 0, 0, 0, 0, 0, 0, 0, 95.94,    127.92    ],
		[325.0,  0.0,      0.0,      13.45,    -3.36,    1.0,      100.0,  1.0, 26.9,     0.0,      0, 0, 0, 0, 0, 0, 0, 0, 0, 0, 0, 8.07,     10.76     ],
		[502.0,  0.0,      0.0,      54.55,    -13.64,   1.0,      100.0,  1.0, 109.1,    0.0,      0, 0, 0, 0, 0, 0, 0, 0, 0, 0, 0, 32.73,    43.64     ],
		[33.0,   0.0,      0.0,      15.9,     -3.98,    1.0,      100.0,  1.0, 31.8,     0.0,      0, 0, 0, 0, 0, 0, 0, 0, 0, 0, 0, 9.54,     12.72     ],
		[570.0,  0.0,      0.0,      26.4,     -6.6,     1.0,      100.0,  1.0, 52.8,     0.0,      0, 0, 0, 0, 0, 0, 0, 0, 0, 0, 0, 15.84,    21.12     ],
		[570.0,  89.0,     0.0,      44.5,     -11.12,   1.0,      100.0,  1.0, 89.0,     0.0,      0, 0, 0, 0, 0, 0, 0, 0, 0, 0, 0, 26.7,     35.6      ],
		[338.0,  0.0,      0.0,      149.8,    -37.45,   1.0,      100.0,  1.0, 299.6,    0.0,      0, 0, 0, 0, 0, 0, 0, 0, 0, 0, 0, 89.88,    119.84    ],
		[338.0,  82.5,     0.0,      41.25,    -10.31,   1.0,      100.0,  1.0, 82.5,     0.0,      0, 0, 0, 0, 0, 0, 0, 0, 0, 0, 0, 24.75,    33.0      ],
		[339.0,  134.0,    0.0,      67.0,     -16.75,   1.0,      100.0,  1.0, 134.0,    0.0,      0, 0, 0, 0, 0, 0, 0, 0, 0, 0, 0, 40.2,     53.6      ],
		[339.0,  0.0,      0.0,      79.5,     -19.88,   1.0,      100.0,  1.0, 159.0,    0.0,      0, 0, 0, 0, 0, 0, 0, 0, 0, 0, 0, 47.7,     63.6      ],
		[339.0,  0.0,      0.0,      55.5,     -13.88,   1.0,      100.0,  1.0, 111.0,    0.0,      0, 0, 0, 0, 0, 0, 0, 0, 0, 0, 0, 33.3,     44.4      ],
		[339.0,  0.0,      0.0,      21.35,    -5.34,    1.0,      100.0,  1.0, 42.7,     0.0,      0, 0, 0, 0, 0, 0, 0, 0, 0, 0, 0, 12.81,    17.08     ],
		[339.0,  58.0,     0.0,      29.0,     -7.25,    1.0,      100.0,  1.0, 58.0,     0.0,      0, 0, 0, 0, 0, 0, 0, 0, 0, 0, 0, 17.4,     23.2      ],
		[340.0,  0.0,      0.0,      9.75,     -2.44,    1.0,      100.0,  1.0, 19.5,     0.0,      0, 0, 0, 0, 0, 0, 0, 0, 0, 0, 0, 5.85,     7.8       ],
		[342.0,  0.0,      0.0,      34.98,    -8.74,    1.0,      100.0,  1.0, 69.95,    0.0,      0, 0, 0, 0, 0, 0, 0, 0, 0, 0, 0, 20.98,    27.98     ],
		[345.0,  0.0,      0.0,      105.5,    -26.38,   1.0,      100.0,  1.0, 211.0,    0.0,      0, 0, 0, 0, 0, 0, 0, 0, 0, 0, 0, 63.3,     84.4      ],
		[345.0,  0.0,      0.0,      44.5,     -11.12,   1.0,      100.0,  1.0, 89.0,     0.0,      0, 0, 0, 0, 0, 0, 0, 0, 0, 0, 0, 26.7,     35.6      ],
		[345.0,  0.0,      0.0,      163.5,    -40.88,   1.0,      100.0,  1.0, 327.0,    0.0,      0, 0, 0, 0, 0, 0, 0, 0, 0, 0, 0, 98.1,     130.8     ],
		[346.0,  0.0,      0.0,      229.45,   -57.36,   1.0,      100.0,  1.0, 458.9,    0.0,      0, 0, 0, 0, 0, 0, 0, 0, 0, 0, 0, 137.67,   183.56    ],
		[363.0,  0.0,      0.0,      40.9,     -10.22,   1.0,      100.0,  1.0, 81.8,     0.0,      0, 0, 0, 0, 0, 0, 0, 0, 0, 0, 0, 24.54,    32.72     ],
		[363.0,  0.0,      0.0,      344.0,    -86.0,    1.0,      100.0,  1.0, 688.0,    0.0,      0, 0, 0, 0, 0, 0, 0, 0, 0, 0, 0, 206.4,    275.2     ],
		[363.0,  0.0,      0.0,      18.0,     -4.5,     1.0,      100.0,  1.0, 36.0,     0.0,      0, 0, 0, 0, 0, 0, 0, 0, 0, 0, 0, 10.8,     14.4      ],
		[503.0,  0.0,      0.0,      26.0,     -6.5,     1.0,      100.0,  1.0, 52.0,     0.0,      0, 0, 0, 0, 0, 0, 0, 0, 0, 0, 0, 15.6,     20.8      ],
		[503.0,  0.0,      0.0,      680.0,    -170.0,   1.0,      100.0,  1.0, 1360.0,   0.0,      0, 0, 0, 0, 0, 0, 0, 0, 0, 0, 0, 408.0,    544.0     ],
		[503.0,  0.0,      0.0,      29.2,     -7.3,     1.0,      100.0,  1.0, 58.4,     0.0,      0, 0, 0, 0, 0, 0, 0, 0, 0, 0, 0, 17.52,    23.36     ],
		[39.0,   0.0,      0.0,      1149.65,  -287.41,  1.0,      100.0,  1.0, 2299.3,   0.0,      0, 0, 0, 0, 0, 0, 0, 0, 0, 0, 0, 689.79,   919.72    ],
		[40.0,   48.0,     0.0,      24.0,     -6.0,     1.0,      100.0,  1.0, 48.0,     0.0,      0, 0, 0, 0, 0, 0, 0, 0, 0, 0, 0, 14.4,     19.2      ],
		[400.0,  0.0,      0.0,      44.0,     -11.0,    1.0,      100.0,  1.0, 88.0,     0.0,      0, 0, 0, 0, 0, 0, 0, 0, 0, 0, 0, 26.4,     35.2      ],
		[400.0,  0.0,      0.0,      30.0,     -7.5,     1.0,      100.0,  1.0, 60.0,     0.0,      0, 0, 0, 0, 0, 0, 0, 0, 0, 0, 0, 18.0,     24.0      ],
		[400.0,  0.0,      0.0,      79.0,     -19.75,   1.0,      100.0,  1.0, 158.0,    0.0,      0, 0, 0, 0, 0, 0, 0, 0, 0, 0, 0, 47.4,     63.2      ],
		[422.0,  0.0,      0.0,      37.0,     -9.25,    1.0,      100.0,  1.0, 74.0,     0.0,      0, 0, 0, 0, 0, 0, 0, 0, 0, 0, 0, 22.2,     29.6      ],
		[43.0,   0.0,      0.0,      98.0,     -24.5,    1.0,      100.0,  1.0, 196.0,    0.0,      0, 0, 0, 0, 0, 0, 0, 0, 0, 0, 0, 58.8,     78.4      ],
		[43.0,   17.0,     0.0,      8.5,      -2.12,    1.0,      100.0,  1.0, 17.0,     0.0,      0, 0, 0, 0, 0, 0, 0, 0, 0, 0, 0, 5.1,      6.8       ],
		[429.0,  0.0,      0.0,      82.0,     -20.5,    1.0,      100.0,  1.0, 164.0,    0.0,      0, 0, 0, 0, 0, 0, 0, 0, 0, 0, 0, 49.2,     65.6      ],
		[44.0,   26.0,     0.0,      13.0,     -3.25,    1.0,      100.0,  1.0, 26.0,     0.0,      0, 0, 0, 0, 0, 0, 0, 0, 0, 0, 0, 7.8,      10.4      ],
		[435.0,  0.0,      0.0,      91.0,     -22.75,   1.0,      100.0,  1.0, 182.0,    0.0,      0, 0, 0, 0, 0, 0, 0, 0, 0, 0, 0, 54.6,     72.8      ],
		[435.0,  0.0,      0.0,      30.75,    -7.69,    1.0,      100.0,  1.0, 61.5,     0.0,      0, 0, 0, 0, 0, 0, 0, 0, 0, 0, 0, 18.45,    24.6      ],
		[436.0,  0.0,      0.0,      13.25,    -3.31,    1.0,      100.0,  1.0, 26.5,     0.0,      0, 0, 0, 0, 0, 0, 0, 0, 0, 0, 0, 7.95,     10.6      ],
		[440.0,  0.0,      0.0,      7.35,     -1.84,    1.0,      100.0,  1.0, 14.7,     0.0,      0, 0, 0, 0, 0, 0, 0, 0, 0, 0, 0, 4.41,     5.88      ],
		[441.0,  0.0,      0.0,      37.5,     -9.38,    1.0,      100.0,  1.0, 75.0,     0.0,      0, 0, 0, 0, 0, 0, 0, 0, 0, 0, 0, 22.5,     30.0      ],
		[45.0,   0.0,      0.0,      148.0,    -37.0,    1.0,      100.0,  1.0, 296.0,    0.0,      0, 0, 0, 0, 0, 0, 0, 0, 0, 0, 0, 88.8,     118.4     ],
		[45.0,   0.0,      0.0,      11.55,    -2.89,    1.0,      100.0,  1.0, 23.1,     0.0,      0, 0, 0, 0, 0, 0, 0, 0, 0, 0, 0, 6.93,     9.24      ],
		[47.0,   0.0,      0.0,      222.0,    -55.5,    1.0,      100.0,  1.0, 444.0,    0.0,      0, 0, 0, 0, 0, 0, 0, 0, 0, 0, 0, 133.2,    177.6     ],
		[47.0,   31.7,     0.0,      15.85,    -3.96,    1.0,      100.0,  1.0, 31.7,     0.0,      0, 0, 0, 0, 0, 0, 0, 0, 0, 0, 0, 9.51,     12.68     ],
		[49.0,   0.0,      0.0,      176.0,    -44.0,    1.0,      100.0,  1.0, 352.0,    0.0,      0, 0, 0, 0, 0, 0, 0, 0, 0, 0, 0, 105.6,    140.8     ],
		[49.0,   0.0,      0.0,      33.0,     -8.25,    1.0,      100.0,  1.0, 66.0,     0.0,      0, 0, 0, 0, 0, 0, 0, 0, 0, 0, 0, 19.8,     26.4      ],
		[49.0,   0.0,      0.0,      18.75,    -4.69,    1.0,      100.0,  1.0, 37.5,     0.0,      0, 0, 0, 0, 0, 0, 0, 0, 0, 0, 0, 11.25,    15.0      ],
		[65.0,   164.5,    0.0,      82.25,    -20.56,   1.0,      100.0,  1.0, 164.5,    0.0,      0, 0, 0, 0, 0, 0, 0, 0, 0, 0, 0, 49.35,    65.8      ],
		[71.0,   49.0,     0.0,      24.5,     -6.12,    1.0,      100.0,  1.0, 49.0,     0.0,      0, 0, 0, 0, 0, 0, 0, 0, 0, 0, 0, 14.7,     19.6      ],
		[71.0,   0.0,      0.0,      80.55,    -20.14,   1.0,      100.0,  1.0, 161.1,    0.0,      0, 0, 0, 0, 0, 0, 0, 0, 0, 0, 0, 48.33,    64.44     ],
		[71.0,   9.9,      0.0,      4.95,     -1.24,    1.0,      100.0,  1.0, 9.9,      0.0,      0, 0, 0, 0, 0, 0, 0, 0, 0, 0, 0, 2.97,     3.96      ],
		[72.0,   900.0,    0.0,      450.0,    -112.5,   1.0,      100.0,  1.0, 900.0,    0.0,      0, 0, 0, 0, 0, 0, 0, 0, 0, 0, 0, 270.0,    360.0     ],
		[72.0,   0.0,      0.0,      75.5,     -18.88,   1.0,      100.0,  1.0, 151.0,    0.0,      0, 0, 0, 0, 0, 0, 0, 0, 0, 0, 0, 45.3,     60.4      ],
		[72.0,   0.0,      0.0,      60.0,     -15.0,    1.0,      100.0,  1.0, 120.0,    0.0,      0, 0, 0, 0, 0, 0, 0, 0, 0, 0, 0, 36.0,     48.0      ],
		[511.0,  0.0,      0.0,      61.0,     -15.25,   1.0,      100.0,  1.0, 122.0,    0.0,      0, 0, 0, 0, 0, 0, 0, 0, 0, 0, 0, 36.6,     48.8      ],
		[511.0,  23.3,     0.0,      11.65,    -2.91,    1.0,      100.0,  1.0, 23.3,     0.0,      0, 0, 0, 0, 0, 0, 0, 0, 0, 0, 0, 6.99,     9.32      ],
		[75.0,   0.0,      0.0,      24.5,     -6.12,    1.0,      100.0,  1.0, 49.0,     0.0,      0, 0, 0, 0, 0, 0, 0, 0, 0, 0, 0, 14.7,     19.6      ],
		[79.0,   750.0,    0.0,      375.0,    -93.75,   1.0,      100.0,  1.0, 750.0,    0.0,      0, 0, 0, 0, 0, 0, 0, 0, 0, 0, 0, 225.0,    300.0     ],
		[79.0,   18.7,     0.0,      9.35,     -2.34,    1.0,      100.0,  1.0, 18.7,     0.0,      0, 0, 0, 0, 0, 0, 0, 0, 0, 0, 0, 5.61,     7.48      ],
		[81.0,   308.42,   0.0,      1417.5,   -354.38,  1.0,      100.0,  1.0, 2835.0,   0.0,      0, 0, 0, 0, 0, 0, 0, 0, 0, 0, 0, 850.5,    1134.0    ],
		[81.0,   0.0,      0.0,      62.25,    -15.56,   1.0,      100.0,  1.0, 124.5,    0.0,      0, 0, 0, 0, 0, 0, 0, 0, 0, 0, 0, 37.35,    49.8      ],
		[218.0,  48.3,     0.0,      24.15,    -6.04,    1.0,      100.0,  1.0, 48.3,     0.0,      0, 0, 0, 0, 0, 0, 0, 0, 0, 0, 0, 14.49,    19.32     ],
		[498.0,  1078.57,  0.0,      723.6,    -180.9,   1.0,      100.0,  1.0, 1447.2,   0.0,      0, 0, 0, 0, 0, 0, 0, 0, 0, 0, 0, 434.16,   578.88    ],
		[8.0,    0.0,      0.0,      46.27,    -11.57,   1.0,      100.0,  1.0, 92.54,    0.0,      0, 0, 0, 0, 0, 0, 0, 0, 0, 0, 0, 27.76,    37.02     ],
		[9.0,    0.0,      0.0,      42.03,    -10.51,   1.0,      100.0,  1.0, 84.05,    0.0,      0, 0, 0, 0, 0, 0, 0, 0, 0, 0, 0, 25.22,    33.62     ],
		[11.0,   130.81,   0.0,      65.41,    -16.35,   1.0,      100.0,  1.0, 130.81,   0.0,      0, 0, 0, 0, 0, 0, 0, 0, 0, 0, 0, 39.24,    52.32     ],
		[17.0,   51.14,    0.0,      25.57,    -6.39,    1.0,      100.0,  1.0, 51.14,    0.0,      0, 0, 0, 0, 0, 0, 0, 0, 0, 0, 0, 15.34,    20.46     ],
		[21.0,   0.0,      0.0,      17.58,    -4.4,     1.0,      100.0,  1.0, 35.17,    0.0,      0, 0, 0, 0, 0, 0, 0, 0, 0, 0, 0, 10.55,    14.07     ],
		[23.0,   61.04,    0.0,      30.52,    -7.63,    1.0,      100.0,  1.0, 61.04,    0.0,      0, 0, 0, 0, 0, 0, 0, 0, 0, 0, 0, 18.31,    24.42     ],
		[25.0,   106.39,   0.0,      53.2,     -13.3,    1.0,      100.0,  1.0, 106.39,   0.0,      0, 0, 0, 0, 0, 0, 0, 0, 0, 0, 0, 31.92,    42.56     ],
		[31.0,   3.6,      0.0,      1.8,      -0.45,    1.0,      100.0,  1.0, 3.6,      0.0,      0, 0, 0, 0, 0, 0, 0, 0, 0, 0, 0, 1.08,     1.44      ],
		[33.0,   92.47,    0.0,      46.23,    -11.56,   1.0,      100.0,  1.0, 92.47,    0.0,      0, 0, 0, 0, 0, 0, 0, 0, 0, 0, 0, 27.74,    36.99     ],
		[38.0,   2.73,     0.0,      1.37,     -0.34,    1.0,      100.0,  1.0, 2.73,     0.0,      0, 0, 0, 0, 0, 0, 0, 0, 0, 0, 0, 0.82,     1.09      ],
		[39.0,   555.92,   0.0,      277.96,   -69.49,   1.0,      100.0,  1.0, 555.92,   0.0,      0, 0, 0, 0, 0, 0, 0, 0, 0, 0, 0, 166.78,   222.37    ],
		[40.0,   426.78,   0.0,      213.39,   -53.35,   1.0,      100.0,  1.0, 426.78,   0.0,      0, 0, 0, 0, 0, 0, 0, 0, 0, 0, 0, 128.03,   170.71    ],
		[41.0,   1033.96,  0.0,      516.98,   -129.25,  1.0,      100.0,  1.0, 1033.96,  0.0,      0, 0, 0, 0, 0, 0, 0, 0, 0, 0, 0, 310.19,   413.58    ],
		[43.0,   368.51,   0.0,      184.26,   -46.06,   1.0,      100.0,  1.0, 368.51,   0.0,      0, 0, 0, 0, 0, 0, 0, 0, 0, 0, 0, 110.55,   147.4     ],
		[44.0,   9.17,     0.0,      4.58,     -1.15,    1.0,      100.0,  1.0, 9.17,     0.0,      0, 0, 0, 0, 0, 0, 0, 0, 0, 0, 0, 2.75,     3.67      ],
		[45.0,   144.6,    0.0,      72.3,     -18.08,   1.0,      100.0,  1.0, 144.6,    0.0,      0, 0, 0, 0, 0, 0, 0, 0, 0, 0, 0, 43.38,    57.84     ],
		[47.0,   2.74,     0.0,      1.37,     -0.34,    1.0,      100.0,  1.0, 2.74,     0.0,      0, 0, 0, 0, 0, 0, 0, 0, 0, 0, 0, 0.82,     1.1       ],
		[48.0,   8.25,     0.0,      4.13,     -1.03,    1.0,      100.0,  1.0, 8.25,     0.0,      0, 0, 0, 0, 0, 0, 0, 0, 0, 0, 0, 2.48,     3.3       ],
		[49.0,   177.4,    0.0,      88.7,     -22.18,   1.0,      100.0,  1.0, 177.4,    0.0,      0, 0, 0, 0, 0, 0, 0, 0, 0, 0, 0, 53.22,    70.96     ],
		[65.0,   2.25,     0.0,      1.13,     -0.28,    1.0,      100.0,  1.0, 2.25,     0.0,      0, 0, 0, 0, 0, 0, 0, 0, 0, 0, 0, 0.68,     0.9       ],
		[71.0,   269.18,   0.0,      134.59,   -33.65,   1.0,      100.0,  1.0, 269.18,   0.0,      0, 0, 0, 0, 0, 0, 0, 0, 0, 0, 0, 80.75,    107.67    ],
		[72.0,   266.53,   0.0,      133.26,   -33.32,   1.0,      100.0,  1.0, 266.53,   0.0,      0, 0, 0, 0, 0, 0, 0, 0, 0, 0, 0, 79.96,    106.61    ],
		[73.0,   553.07,   0.0,      276.54,   -69.13,   1.0,      100.0,  1.0, 553.07,   0.0,      0, 0, 0, 0, 0, 0, 0, 0, 0, 0, 0, 165.92,   221.23    ],
		[75.0,   339.69,   0.0,      169.85,   -42.46,   1.0,      100.0,  1.0, 339.69,   0.0,      0, 0, 0, 0, 0, 0, 0, 0, 0, 0, 0, 101.91,   135.88    ],
		[79.0,   104.58,   0.0,      52.29,    -13.07,   1.0,      100.0,  1.0, 104.58,   0.0,      0, 0, 0, 0, 0, 0, 0, 0, 0, 0, 0, 31.37,    41.83     ],
		[80.0,   28.06,    0.0,      14.03,    -3.51,    1.0,      100.0,  1.0, 28.06,    0.0,      0, 0, 0, 0, 0, 0, 0, 0, 0, 0, 0, 8.42,     11.22     ],
		[81.0,   348.93,   0.0,      174.47,   -43.62,   1.0,      100.0,  1.0, 348.93,   0.0,      0, 0, 0, 0, 0, 0, 0, 0, 0, 0, 0, 104.68,   139.57    ],
		[98.0,   83.91,    0.0,      41.96,    -10.49,   1.0,      100.0,  1.0, 83.91,    0.0,      0, 0, 0, 0, 0, 0, 0, 0, 0, 0, 0, 25.17,    33.56     ],
		[101.0,  348.74,   0.0,      174.37,   -43.59,   1.0,      100.0,  1.0, 348.74,   0.0,      0, 0, 0, 0, 0, 0, 0, 0, 0, 0, 0, 104.62,   139.5     ],
		[102.0,  243.09,   0.0,      121.55,   -30.39,   1.0,      100.0,  1.0, 243.09,   0.0,      0, 0, 0, 0, 0, 0, 0, 0, 0, 0, 0, 72.93,    97.24     ],
		[177.0,  236.3,    0.0,      118.15,   -29.54,   1.0,      100.0,  1.0, 236.3,    0.0,      0, 0, 0, 0, 0, 0, 0, 0, 0, 0, 0, 70.89,    94.52     ],
		[179.0,  371.7,    0.0,      249.09,   -62.27,   1.0,      100.0,  1.0, 498.18,   0.0,      0, 0, 0, 0, 0, 0, 0, 0, 0, 0, 0, 149.45,   199.27    ],
		[180.0,  321.61,   0.0,      160.81,   -40.2,    1.0,      100.0,  1.0, 321.61,   0.0,      0, 0, 0, 0, 0, 0, 0, 0, 0, 0, 0, 96.48,    128.64    ],
		[181.0,  284.42,   0.0,      142.21,   -35.55,   1.0,      100.0,  1.0, 284.42,   0.0,      0, 0, 0, 0, 0, 0, 0, 0, 0, 0, 0, 85.33,    113.77    ],
		[182.0,  56.23,    0.0,      28.11,    -7.03,    1.0,      100.0,  1.0, 56.23,    0.0,      0, 0, 0, 0, 0, 0, 0, 0, 0, 0, 0, 16.87,    22.49     ],
		[183.0,  79.31,    0.0,      39.65,    -9.91,    1.0,      100.0,  1.0, 79.31,    0.0,      0, 0, 0, 0, 0, 0, 0, 0, 0, 0, 0, 23.79,    31.72     ],
		[192.0,  252.76,   0.0,      126.38,   -31.59,   1.0,      100.0,  1.0, 252.76,   0.0,      0, 0, 0, 0, 0, 0, 0, 0, 0, 0, 0, 75.83,    101.1     ],
		[217.0,  160.65,   0.0,      80.33,    -20.08,   1.0,      100.0,  1.0, 160.65,   0.0,      0, 0, 0, 0, 0, 0, 0, 0, 0, 0, 0, 48.2,     64.26     ],
		[218.0,  90.58,    0.0,      45.29,    -11.32,   1.0,      100.0,  1.0, 90.58,    0.0,      0, 0, 0, 0, 0, 0, 0, 0, 0, 0, 0, 27.17,    36.23     ],
		[276.0,  237.66,   0.0,      118.83,   -29.71,   1.0,      100.0,  1.0, 237.66,   0.0,      0, 0, 0, 0, 0, 0, 0, 0, 0, 0, 0, 71.3,     95.06     ],
		[278.0,  325.01,   0.0,      162.51,   -40.63,   1.0,      100.0,  1.0, 325.01,   0.0,      0, 0, 0, 0, 0, 0, 0, 0, 0, 0, 0, 97.5,     130.0     ],
		[288.0,  40.88,    0.0,      20.44,    -5.11,    1.0,      100.0,  1.0, 40.88,    0.0,      0, 0, 0, 0, 0, 0, 0, 0, 0, 0, 0, 12.26,    16.35     ],
		[289.0,  17.32,    0.0,      8.66,     -2.17,    1.0,      100.0,  1.0, 17.32,    0.0,      0, 0, 0, 0, 0, 0, 0, 0, 0, 0, 0, 5.2,      6.93      ],
		[291.0,  6.01,     0.0,      3.0,      -0.75,    1.0,      100.0,  1.0, 6.01,     0.0,      0, 0, 0, 0, 0, 0, 0, 0, 0, 0, 0, 1.8,      2.4       ],
		[292.0,  2.47,     0.0,      1.23,     -0.31,    1.0,      100.0,  1.0, 2.47,     0.0,      0, 0, 0, 0, 0, 0, 0, 0, 0, 0, 0, 0.74,     0.99      ],
		[311.0,  20.16,    0.0,      10.08,    -2.52,    1.0,      100.0,  1.0, 20.16,    0.0,      0, 0, 0, 0, 0, 0, 0, 0, 0, 0, 0, 6.05,     8.06      ],
		[321.0,  17.87,    0.0,      8.93,     -2.23,    1.0,      100.0,  1.0, 17.87,    0.0,      0, 0, 0, 0, 0, 0, 0, 0, 0, 0, 0, 5.36,     7.15      ],
		[322.0,  26.97,    0.0,      13.48,    -3.37,    1.0,      100.0,  1.0, 26.97,    0.0,      0, 0, 0, 0, 0, 0, 0, 0, 0, 0, 0, 8.09,     10.79     ],
		[323.0,  15.85,    0.0,      7.92,     -1.98,    1.0,      100.0,  1.0, 15.85,    0.0,      0, 0, 0, 0, 0, 0, 0, 0, 0, 0, 0, 4.76,     6.34      ],
		[324.0,  23.65,    0.0,      11.82,    -2.96,    1.0,      100.0,  1.0, 23.65,    0.0,      0, 0, 0, 0, 0, 0, 0, 0, 0, 0, 0, 7.1,      9.46      ],
		[325.0,  53.32,    0.0,      26.66,    -6.66,    1.0,      100.0,  1.0, 53.32,    0.0,      0, 0, 0, 0, 0, 0, 0, 0, 0, 0, 0, 16.0,     21.33     ],
		[338.0,  71.5,     0.0,      35.75,    -8.94,    1.0,      100.0,  1.0, 71.5,     0.0,      0, 0, 0, 0, 0, 0, 0, 0, 0, 0, 0, 21.45,    28.6      ],
		[339.0,  74.8,     0.0,      37.4,     -9.35,    1.0,      100.0,  1.0, 74.8,     0.0,      0, 0, 0, 0, 0, 0, 0, 0, 0, 0, 0, 22.44,    29.92     ],
		[340.0,  93.31,    0.0,      46.65,    -11.66,   1.0,      100.0,  1.0, 93.31,    0.0,      0, 0, 0, 0, 0, 0, 0, 0, 0, 0, 0, 27.99,    37.32     ],
		[341.0,  0.06,     0.0,      0.03,     -0.01,    1.0,      100.0,  1.0, 0.06,     0.0,      0, 0, 0, 0, 0, 0, 0, 0, 0, 0, 0, 0.02,     0.02      ],
		[342.0,  42.01,    0.0,      21.0,     -5.25,    1.0,      100.0,  1.0, 42.01,    0.0,      0, 0, 0, 0, 0, 0, 0, 0, 0, 0, 0, 12.6,     16.8      ],
		[343.0,  7.44,     0.0,      3.72,     -0.93,    1.0,      100.0,  1.0, 7.44,     0.0,      0, 0, 0, 0, 0, 0, 0, 0, 0, 0, 0, 2.23,     2.98      ],
		[344.0,  2.21,     0.0,      1.1,      -0.28,    1.0,      100.0,  1.0, 2.21,     0.0,      0, 0, 0, 0, 0, 0, 0, 0, 0, 0, 0, 0.66,     0.88      ],
		[345.0,  5.09,     0.0,      2.55,     -0.64,    1.0,      100.0,  1.0, 5.09,     0.0,      0, 0, 0, 0, 0, 0, 0, 0, 0, 0, 0, 1.53,     2.04      ],
		[346.0,  5.4,      0.0,      2.7,      -0.68,    1.0,      100.0,  1.0, 5.4,      0.0,      0, 0, 0, 0, 0, 0, 0, 0, 0, 0, 0, 1.62,     2.16      ],
		[363.0,  3.02,     0.0,      1.51,     -0.38,    1.0,      100.0,  1.0, 3.02,     0.0,      0, 0, 0, 0, 0, 0, 0, 0, 0, 0, 0, 0.91,     1.21      ],
		[400.0,  204.86,   0.0,      102.43,   -25.61,   1.0,      100.0,  1.0, 204.86,   0.0,      0, 0, 0, 0, 0, 0, 0, 0, 0, 0, 0, 61.46,    81.94     ],
		[422.0,  64.56,    0.0,      32.28,    -8.07,    1.0,      100.0,  1.0, 64.56,    0.0,      0, 0, 0, 0, 0, 0, 0, 0, 0, 0, 0, 19.37,    25.82     ],
		[429.0,  1.15,     0.0,      0.57,     -0.14,    1.0,      100.0,  1.0, 1.15,     0.0,      0, 0, 0, 0, 0, 0, 0, 0, 0, 0, 0, 0.34,     0.46      ],
		[435.0,  83.7,     0.0,      41.85,    -10.46,   1.0,      100.0,  1.0, 83.7,     0.0,      0, 0, 0, 0, 0, 0, 0, 0, 0, 0, 0, 25.11,    33.48     ],
		[436.0,  13.06,    0.0,      6.53,     -1.63,    1.0,      100.0,  1.0, 13.06,    0.0,      0, 0, 0, 0, 0, 0, 0, 0, 0, 0, 0, 3.92,     5.22      ],
		[440.0,  234.24,   0.0,      117.12,   -29.28,   1.0,      100.0,  1.0, 234.24,   0.0,      0, 0, 0, 0, 0, 0, 0, 0, 0, 0, 0, 70.27,    93.7      ],
		[441.0,  245.83,   0.0,      122.92,   -30.73,   1.0,      100.0,  1.0, 245.83,   0.0,      0, 0, 0, 0, 0, 0, 0, 0, 0, 0, 0, 73.75,    98.33     ],
		[492.0,  463.24,   0.0,      231.62,   -57.9,    1.0,      100.0,  1.0, 463.24,   0.0,      0, 0, 0, 0, 0, 0, 0, 0, 0, 0, 0, 138.97,   185.3     ],
		[493.0,  319.9,    0.0,      159.95,   -39.99,   1.0,      100.0,  1.0, 319.9,    0.0,      0, 0, 0, 0, 0, 0, 0, 0, 0, 0, 0, 95.97,    127.96    ],
		[496.0,  227.36,   0.0,      113.68,   -28.42,   1.0,      100.0,  1.0, 227.36,   0.0,      0, 0, 0, 0, 0, 0, 0, 0, 0, 0, 0, 68.21,    90.94     ],
		[497.0,  11.78,    0.0,      5.89,     -1.47,    1.0,      100.0,  1.0, 11.78,    0.0,      0, 0, 0, 0, 0, 0, 0, 0, 0, 0, 0, 3.53,     4.71      ],
		[498.0,  0.0,      0.0,      643.86,   -160.97,  1.0,      100.0,  1.0, 1287.72,  0.0,      0, 0, 0, 0, 0, 0, 0, 0, 0, 0, 0, 386.32,   515.09    ],
		[502.0,  85.37,    0.0,      42.68,    -10.67,   1.0,      100.0,  1.0, 85.37,    0.0,      0, 0, 0, 0, 0, 0, 0, 0, 0, 0, 0, 25.61,    34.15     ],
		[503.0,  295.44,   0.0,      147.72,   -36.93,   1.0,      100.0,  1.0, 295.44,   0.0,      0, 0, 0, 0, 0, 0, 0, 0, 0, 0, 0, 88.63,    118.18    ],
		[504.0,  99.06,    0.0,      49.53,    -12.38,   1.0,      100.0,  1.0, 99.06,    0.0,      0, 0, 0, 0, 0, 0, 0, 0, 0, 0, 0, 29.72,    39.62     ],
		[505.0,  0.79,     0.0,      0.4,      -0.1,     1.0,      100.0,  1.0, 0.79,     0.0,      0, 0, 0, 0, 0, 0, 0, 0, 0, 0, 0, 0.24,     0.32      ],
		[511.0,  670.64,   0.0,      335.32,   -83.83,   1.0,      100.0,  1.0, 670.64,   0.0,      0, 0, 0, 0, 0, 0, 0, 0, 0, 0, 0, 201.19,   268.26    ],
		[512.0,  17.12,    0.0,      8.56,     -2.14,    1.0,      100.0,  1.0, 17.12,    0.0,      0, 0, 0, 0, 0, 0, 0, 0, 0, 0, 0, 5.14,     6.85      ],
		[557.0,  32.46,    0.0,      16.23,    -4.06,    1.0,      100.0,  1.0, 32.46,    0.0,      0, 0, 0, 0, 0, 0, 0, 0, 0, 0, 0, 9.74,     12.98     ],
		[558.0,  102.65,   0.0,      51.32,    -12.83,   1.0,      100.0,  1.0, 102.65,   0.0,      0, 0, 0, 0, 0, 0, 0, 0, 0, 0, 0, 30.8,     41.06     ],
		[559.0,  45.04,    0.0,      22.52,    -5.63,    1.0,      100.0,  1.0, 45.04,    0.0,      0, 0, 0, 0, 0, 0, 0, 0, 0, 0, 0, 13.51,    18.02     ],
		[560.0,  243.16,   0.0,      121.58,   -30.39,   1.0,      100.0,  1.0, 243.16,   0.0,      0, 0, 0, 0, 0, 0, 0, 0, 0, 0, 0, 72.95,    97.26     ],
		[569.0,  2.27,     0.0,      1.13,     -0.28,    1.0,      100.0,  1.0, 2.27,     0.0,      0, 0, 0, 0, 0, 0, 0, 0, 0, 0, 0, 0.68,     0.91      ],
		[570.0,  24.37,    0.0,      12.19,    -3.05,    1.0,      100.0,  1.0, 24.37,    0.0,      0, 0, 0, 0, 0, 0, 0, 0, 0, 0, 0, 7.31,     9.75      ],
		[8.0,    0.0,      0.0,      0.0,      -0.0,     1.0,      100.0,  1.0, 0.0,      0.0,      0, 0, 0, 0, 0, 0, 0, 0, 0, 0, 0, 0.0,      0.0       ],
		[9.0,    0.0,      0.0,      0.0,      -0.0,     1.0,      100.0,  1.0, 0.0,      0.0,      0, 0, 0, 0, 0, 0, 0, 0, 0, 0, 0, 0.0,      0.0       ],
		[11.0,   0.0,      0.0,      0.0,      -0.0,     1.0,      100.0,  1.0, 0.0,      0.0,      0, 0, 0, 0, 0, 0, 0, 0, 0, 0, 0, 0.0,      0.0       ],
		[17.0,   0.0,      0.0,      0.0,      -0.0,     1.0,      100.0,  1.0, 0.0,      0.0,      0, 0, 0, 0, 0, 0, 0, 0, 0, 0, 0, 0.0,      0.0       ],
		[21.0,   0.0,      0.0,      0.0,      -0.0,     1.0,      100.0,  1.0, 0.0,      0.0,      0, 0, 0, 0, 0, 0, 0, 0, 0, 0, 0, 0.0,      0.0       ],
		[23.0,   0.0,      0.0,      0.0,      -0.0,     1.0,      100.0,  1.0, 0.0,      0.0,      0, 0, 0, 0, 0, 0, 0, 0, 0, 0, 0, 0.0,      0.0       ],
		[25.0,   0.0,      0.0,      0.0,      -0.0,     1.0,      100.0,  1.0, 0.0,      0.0,      0, 0, 0, 0, 0, 0, 0, 0, 0, 0, 0, 0.0,      0.0       ],
		[31.0,   0.0,      0.0,      0.0,      -0.0,     1.0,      100.0,  1.0, 0.0,      0.0,      0, 0, 0, 0, 0, 0, 0, 0, 0, 0, 0, 0.0,      0.0       ],
		[33.0,   0.0,      0.0,      0.0,      -0.0,     1.0,      100.0,  1.0, 0.0,      0.0,      0, 0, 0, 0, 0, 0, 0, 0, 0, 0, 0, 0.0,      0.0       ],
		[38.0,   0.0,      0.0,      0.0,      -0.0,     1.0,      100.0,  1.0, 0.0,      0.0,      0, 0, 0, 0, 0, 0, 0, 0, 0, 0, 0, 0.0,      0.0       ],
		[39.0,   0.0,      0.0,      0.0,      -0.0,     1.0,      100.0,  1.0, 0.0,      0.0,      0, 0, 0, 0, 0, 0, 0, 0, 0, 0, 0, 0.0,      0.0       ],
		[40.0,   0.0,      0.0,      0.0,      -0.0,     1.0,      100.0,  1.0, 0.0,      0.0,      0, 0, 0, 0, 0, 0, 0, 0, 0, 0, 0, 0.0,      0.0       ],
		[41.0,   0.0,      0.0,      0.0,      -0.0,     1.0,      100.0,  1.0, 0.0,      0.0,      0, 0, 0, 0, 0, 0, 0, 0, 0, 0, 0, 0.0,      0.0       ],
		[43.0,   0.0,      0.0,      0.0,      -0.0,     1.0,      100.0,  1.0, 0.0,      0.0,      0, 0, 0, 0, 0, 0, 0, 0, 0, 0, 0, 0.0,      0.0       ],
		[44.0,   0.0,      0.0,      0.0,      -0.0,     1.0,      100.0,  1.0, 0.0,      0.0,      0, 0, 0, 0, 0, 0, 0, 0, 0, 0, 0, 0.0,      0.0       ],
		[45.0,   0.0,      0.0,      0.0,      -0.0,     1.0,      100.0,  1.0, 0.0,      0.0,      0, 0, 0, 0, 0, 0, 0, 0, 0, 0, 0, 0.0,      0.0       ],
		[47.0,   0.0,      0.0,      0.0,      -0.0,     1.0,      100.0,  1.0, 0.0,      0.0,      0, 0, 0, 0, 0, 0, 0, 0, 0, 0, 0, 0.0,      0.0       ],
		[48.0,   0.0,      0.0,      0.0,      -0.0,     1.0,      100.0,  1.0, 0.0,      0.0,      0, 0, 0, 0, 0, 0, 0, 0, 0, 0, 0, 0.0,      0.0       ],
		[49.0,   0.0,      0.0,      0.0,      -0.0,     1.0,      100.0,  1.0, 0.0,      0.0,      0, 0, 0, 0, 0, 0, 0, 0, 0, 0, 0, 0.0,      0.0       ],
		[65.0,   0.0,      0.0,      0.0,      -0.0,     1.0,      100.0,  1.0, 0.0,      0.0,      0, 0, 0, 0, 0, 0, 0, 0, 0, 0, 0, 0.0,      0.0       ],
...
	])
	ppc["branch"] = array([
		[8.0,    9.0,    0.00024379,    0.00243793,    0.35006327,    2395.0, 0.0,0.0,0.0,    0.0,1.0,-30.0,  30.0,   0.1     ],
		[492.0,  11.0,   0.0045562,     0.01822479,    0.04820045,    346.0,  0.0,0.0,0.0,    0.0,1.0,-30.0,  30.0,   0.1     ],
		[11.0,   493.0,  0.00757174,    0.03028694,    0.0801021,     346.0,  0.0,0.0,0.0,    0.0,1.0,-30.0,  30.0,   0.1     ],
		[492.0,  493.0,  0.01130413,    0.04521653,    0.11958747,    346.0,  0.0,0.0,0.0,    0.0,1.0,-30.0,  30.0,   0.1     ],
		[17.0,   18.0,   0.00462352,    0.04623523,    0.9335989,     898.0,  0.0,0.0,0.0,    0.0,1.0,-30.0,  30.0,   0.1     ],
		[17.0,   12.0,   0.0005602,     0.00560203,    0.1131183,     898.0,  0.0,0.0,0.0,    0.0,1.0,-30.0,  30.0,   0.1     ],
		[20.0,   21.0,   0.00108334,    0.01083345,    0.09722357,    598.0,  0.0,0.0,0.0,    0.0,1.0,-30.0,  30.0,   0.1     ],
		[20.0,   22.0,   0.00099339,    0.00993386,    0.3566014,     1197.0, 0.0,0.0,0.0,    0.0,1.0,-30.0,  30.0,   0.1     ],
		[497.0,  23.0,   0.0005476,     0.00219041,    0.00579315,    346.0,  0.0,0.0,0.0,    0.0,1.0,-30.0,  30.0,   0.1     ],
		[25.0,   22.0,   0.00035578,    0.00355783,    0.03192931,    598.0,  0.0,0.0,0.0,    0.0,1.0,-30.0,  30.0,   0.1     ],
		[8.0,    21.0,   0.00098947,    0.00989474,    0.0887992,     598.0,  0.0,0.0,0.0,    0.0,1.0,-30.0,  30.0,   0.1     ],
		[31.0,   32.0,   0.00299776,    0.02997761,    0.60531903,    898.0,  0.0,0.0,0.0,    0.0,1.0,-30.0,  30.0,   0.1     ],
		[32.0,   33.0,   0.00167622,    0.01676223,    0.33846928,    898.0,  0.0,0.0,0.0,    0.0,1.0,-30.0,  30.0,   0.1     ],
		[37.0,   10.0,   0.00240464,    0.0240464,     0.48555384,    898.0,  0.0,0.0,0.0,    0.0,1.0,-30.0,  30.0,   0.1     ],
		[10.0,   38.0,   0.00068488,    0.0068488,     0.13829351,    898.0,  0.0,0.0,0.0,    0.0,1.0,-30.0,  30.0,   0.1     ],
		[37.0,   38.0,   0.00143783,    0.01437835,    1.16133176,    1796.0, 0.0,0.0,0.0,    0.0,1.0,-30.0,  30.0,   0.1     ],
		[39.0,   40.0,   0.00452163,    0.0452163,     0.91302431,    898.0,  0.0,0.0,0.0,    0.0,1.0,-30.0,  30.0,   0.1     ],
		[39.0,   41.0,   0.0017467,     0.01746699,    0.35269996,    898.0,  0.0,0.0,0.0,    0.0,1.0,-30.0,  30.0,   0.1     ],
		[42.0,   41.0,   0.00311454,    0.03114543,    0.6289001,     898.0,  0.0,0.0,0.0,    0.0,1.0,-30.0,  30.0,   0.1     ],
		[18.0,   42.0,   0.00343975,    0.03439751,    0.69456727,    898.0,  0.0,0.0,0.0,    0.0,1.0,-30.0,  30.0,   0.1     ],
		[492.0,  43.0,   0.00910612,    0.03642446,    0.09633445,    346.0,  0.0,0.0,0.0,    0.0,1.0,-30.0,  30.0,   0.1     ],
		[492.0,  43.0,   0.00909587,    0.03638347,    0.09622603,    346.0,  0.0,0.0,0.0,    0.0,1.0,-30.0,  30.0,   0.1     ],
		[44.0,   45.0,   0.00640579,    0.02562314,    0.0677674,     346.0,  0.0,0.0,0.0,    0.0,1.0,-30.0,  30.0,   0.1     ],
		[44.0,   505.0,  0.00151537,    0.00606149,    0.01603126,    346.0,  0.0,0.0,0.0,    0.0,1.0,-30.0,  30.0,   0.1     ],
		[46.0,   12.0,   0.00029449,    0.00294494,    0.1057163,     1197.0, 0.0,0.0,0.0,    0.0,1.0,-30.0,  30.0,   0.1     ],
		[46.0,   12.0,   0.00029482,    0.00294823,    0.10583438,    1197.0, 0.0,0.0,0.0,    0.0,1.0,-30.0,  30.0,   0.1     ],
		[47.0,   48.0,   0.00053442,    0.00534418,    0.01199019,    299.0,  0.0,0.0,0.0,    0.0,1.0,-30.0,  30.0,   0.1     ],
		[31.0,   33.0,   0.0013476,     0.01347599,    0.27211226,    898.0,  0.0,0.0,0.0,    0.0,1.0,-30.0,  30.0,   0.1     ],
		[71.0,   72.0,   0.00088786,    0.00887864,    0.31872128,    1197.0, 0.0,0.0,0.0,    0.0,1.0,-30.0,  30.0,   0.1     ],
		[73.0,   74.0,   0.00125295,    0.01252955,    0.25300129,    898.0,  0.0,0.0,0.0,    0.0,1.0,-30.0,  30.0,   0.1     ],
		[37.0,   75.0,   0.00274591,    0.02745914,    0.5544652,     898.0,  0.0,0.0,0.0,    0.0,1.0,-30.0,  30.0,   0.1     ],
		[72.0,   75.0,   0.00066887,    0.00668871,    0.24010838,    1197.0, 0.0,0.0,0.0,    0.0,1.0,-30.0,  30.0,   0.1     ],
		[37.0,   72.0,   0.00362221,    0.03622207,    0.73140949,    898.0,  0.0,0.0,0.0,    0.0,1.0,-30.0,  30.0,   0.1     ],
		[73.0,   72.0,   0.00254751,    0.02547507,    0.51440208,    898.0,  0.0,0.0,0.0,    0.0,1.0,-30.0,  30.0,   0.1     ],
		[18.0,   40.0,   0.00130277,    0.0130277,     0.26306019,    898.0,  0.0,0.0,0.0,    0.0,1.0,-30.0,  30.0,   0.1     ],
		[492.0,  45.0,   0.00771758,    0.0308703,     0.18370115,    520.0,  0.0,0.0,0.0,    0.0,1.0,-30.0,  30.0,   0.1     ],
		[10.0,   74.0,   0.00301674,    0.03016736,    0.60915055,    898.0,  0.0,0.0,0.0,    0.0,1.0,-30.0,  30.0,   0.1     ],
		[45.0,   511.0,  0.02050843,    0.08203372,    0.05424015,    173.0,  0.0,0.0,0.0,    0.0,1.0,-30.0,  30.0,   0.1     ],
		[78.0,   32.0,   0.00134588,    0.0134588,     0.48313778,    1197.0, 0.0,0.0,0.0,    0.0,1.0,-30.0,  30.0,   0.1     ],
		[79.0,   80.0,   0.00076233,    0.00762327,    0.06841417,    598.0,  0.0,0.0,0.0,    0.0,1.0,-30.0,  30.0,   0.1     ],
		[79.0,   80.0,   0.00076174,    0.00761738,    0.06836134,    598.0,  0.0,0.0,0.0,    0.0,1.0,-30.0,  30.0,   0.1     ],
		[81.0,   79.0,   0.00215305,    0.02153047,    0.19322279,    598.0,  0.0,0.0,0.0,    0.0,1.0,-30.0,  30.0,   0.1     ],
		[81.0,   79.0,   0.00215357,    0.02153566,    0.1932694,     598.0,  0.0,0.0,0.0,    0.0,1.0,-30.0,  30.0,   0.1     ],
		[42.0,   98.0,   0.00061861,    0.00618611,    0.22206638,    1197.0, 0.0,0.0,0.0,    0.0,1.0,-30.0,  30.0,   0.1     ],
		[42.0,   98.0,   0.00061835,    0.00618352,    0.22197315,    1197.0, 0.0,0.0,0.0,    0.0,1.0,-30.0,  30.0,   0.1     ],
		[42.0,   101.0,  0.00081653,    0.00816534,    0.29311568,    1197.0, 0.0,0.0,0.0,    0.0,1.0,-30.0,  30.0,   0.1     ],
		[102.0,  42.0,   0.0012403,     0.01240305,    0.44523901,    1197.0, 0.0,0.0,0.0,    0.0,1.0,-30.0,  30.0,   0.1     ],
		[37.0,   39.0,   0.00065102,    0.00651021,    0.23370076,    1197.0, 0.0,0.0,0.0,    0.0,1.0,-30.0,  30.0,   0.1     ],
		[177.0,  496.0,  0.00932496,    0.03729983,    0.09864961,    346.0,  0.0,0.0,0.0,    0.0,1.0,-30.0,  30.0,   0.1     ],
		[177.0,  496.0,  0.00931603,    0.03726413,    0.09855518,    346.0,  0.0,0.0,0.0,    0.0,1.0,-30.0,  30.0,   0.1     ],
		[179.0,  493.0,  0.01426992,    0.05707967,    0.15096279,    346.0,  0.0,0.0,0.0,    0.0,1.0,-30.0,  30.0,   0.1     ],
		[180.0,  181.0,  0.01025686,    0.04102744,    0.10850827,    346.0,  0.0,0.0,0.0,    0.0,1.0,-30.0,  30.0,   0.1     ],
		[182.0,  180.0,  0.00433818,    0.01735273,    0.04589403,    346.0,  0.0,0.0,0.0,    0.0,1.0,-30.0,  30.0,   0.1     ],
		[179.0,  181.0,  0.00489306,    0.01957223,    0.05176412,    346.0,  0.0,0.0,0.0,    0.0,1.0,-30.0,  30.0,   0.1     ],
		[180.0,  493.0,  0.0166914,     0.06676562,    0.17657993,    346.0,  0.0,0.0,0.0,    0.0,1.0,-30.0,  30.0,   0.1     ],
		[183.0,  30.0,   0.00049645,    0.00496451,    0.17821369,    1197.0, 0.0,0.0,0.0,    0.0,1.0,-30.0,  30.0,   0.1     ],
		[183.0,  21.0,   0.00025687,    0.00256873,    0.36884485,    2395.0, 0.0,0.0,0.0,    0.0,1.0,-30.0,  30.0,   0.1     ],
		[183.0,  21.0,   0.00051295,    0.0051295,     0.18413654,    1197.0, 0.0,0.0,0.0,    0.0,1.0,-30.0,  30.0,   0.1     ],
		[183.0,  30.0,   0.00049609,    0.00496087,    0.17808317,    1197.0, 0.0,0.0,0.0,    0.0,1.0,-30.0,  30.0,   0.1     ],
		[504.0,  192.0,  0.00015355,    0.00061421,    0.00162446,    346.0,  0.0,0.0,0.0,    0.0,1.0,-30.0,  30.0,   0.1     ],
		[504.0,  192.0,  0.00015421,    0.00061686,    0.00163145,    346.0,  0.0,0.0,0.0,    0.0,1.0,-30.0,  30.0,   0.1     ],
		[217.0,  98.0,   0.00012787,    0.00127874,    0.04590362,    1197.0, 0.0,0.0,0.0,    0.0,1.0,-30.0,  30.0,   0.1     ],
		[504.0,  218.0,  0.00687025,    0.02748099,    0.07268099,    346.0,  0.0,0.0,0.0,    0.0,1.0,-30.0,  30.0,   0.1     ],
		[177.0,  504.0,  0.01763702,    0.0705481,     0.18658373,    346.0,  0.0,0.0,0.0,    0.0,1.0,-30.0,  30.0,   0.1     ],
		[37.0,   39.0,   0.00086777,    0.00867775,    0.1752243,     898.0,  0.0,0.0,0.0,    0.0,1.0,-30.0,  30.0,   0.1     ],
		[20.0,   22.0,   0.00099413,    0.00994131,    0.35686864,    1197.0, 0.0,0.0,0.0,    0.0,1.0,-30.0,  30.0,   0.1     ],
		[20.0,   21.0,   0.00108314,    0.01083137,    0.09720492,    598.0,  0.0,0.0,0.0,    0.0,1.0,-30.0,  30.0,   0.1     ],
		[503.0,  276.0,  0.00335322,    0.01341289,    0.03547406,    346.0,  0.0,0.0,0.0,    0.0,1.0,-30.0,  30.0,   0.1     ],
		[503.0,  276.0,  0.00335372,    0.01341488,    0.03547931,    346.0,  0.0,0.0,0.0,    0.0,1.0,-30.0,  30.0,   0.1     ],
		[503.0,  504.0,  0.03215471,    0.12861884,    0.34016769,    346.0,  0.0,0.0,0.0,    0.0,1.0,-30.0,  30.0,   0.1     ],
		[503.0,  504.0,  0.03216364,    0.12865455,    0.34026211,    346.0,  0.0,0.0,0.0,    0.0,1.0,-30.0,  30.0,   0.1     ],
		[177.0,  218.0,  0.01082595,    0.0433038,     0.11452874,    346.0,  0.0,0.0,0.0,    0.0,1.0,-30.0,  30.0,   0.1     ],
		[182.0,  180.0,  0.00433157,    0.01732628,    0.04582409,    346.0,  0.0,0.0,0.0,    0.0,1.0,-30.0,  30.0,   0.1     ],
		[277.0,  278.0,  0.00143837,    0.01438366,    0.51633804,    1197.0, 0.0,0.0,0.0,    0.0,1.0,-30.0,  30.0,   0.1     ],
		[277.0,  278.0,  0.00143823,    0.01438227,    0.51628832,    1197.0, 0.0,0.0,0.0,    0.0,1.0,-30.0,  30.0,   0.1     ],
		[557.0,  558.0,  0.01085322,    0.04341289,    0.25833884,    520.0,  0.0,0.0,0.0,    0.0,1.0,-30.0,  30.0,   0.1     ],
		[557.0,  559.0,  0.00853967,    0.03415868,    0.09034196,    346.0,  0.0,0.0,0.0,    0.0,1.0,-30.0,  30.0,   0.1     ],
		[559.0,  558.0,  0.01118579,    0.04474314,    0.11833547,    346.0,  0.0,0.0,0.0,    0.0,1.0,-30.0,  30.0,   0.1     ],
		[277.0,  78.0,   0.00358577,    0.03585769,    0.32180078,    598.0,  0.0,0.0,0.0,    0.0,1.0,-30.0,  30.0,   0.1     ],
		[277.0,  279.0,  0.00213909,    0.02139093,    0.19197048,    598.0,  0.0,0.0,0.0,    0.0,1.0,-30.0,  30.0,   0.1     ],
		[78.0,   279.0,  0.0015812,     0.01581198,    0.14190284,    598.0,  0.0,0.0,0.0,    0.0,1.0,-30.0,  30.0,   0.1     ],
		[8.0,    102.0,  0.00151001,    0.01510007,    0.5420555,     1197.0, 0.0,0.0,0.0,    0.0,1.0,-30.0,  30.0,   0.1     ],
		[8.0,    101.0,  0.00192469,    0.01924688,    0.69091598,    1197.0, 0.0,0.0,0.0,    0.0,1.0,-30.0,  30.0,   0.1     ],
		[80.0,   288.0,  0.00159713,    0.01597126,    0.14333228,    598.0,  0.0,0.0,0.0,    0.0,1.0,-30.0,  30.0,   0.1     ],
		[80.0,   288.0,  0.00159681,    0.01596814,    0.14330432,    598.0,  0.0,0.0,0.0,    0.0,1.0,-30.0,  30.0,   0.1     ],
		[80.0,   289.0,  0.00013825,    0.0013825,     0.027916,      898.0,  0.0,0.0,0.0,    0.0,1.0,-30.0,  30.0,   0.1     ],
		[80.0,   289.0,  0.00014241,    0.00142405,    0.02875502,    898.0,  0.0,0.0,0.0,    0.0,1.0,-30.0,  30.0,   0.1     ],
		[80.0,   289.0,  0.00015471,    0.00154709,    0.03123945,    898.0,  0.0,0.0,0.0,    0.0,1.0,-30.0,  30.0,   0.1     ],
		[80.0,   289.0,  0.00015129,    0.00151293,    0.03054959,    898.0,  0.0,0.0,0.0,    0.0,1.0,-30.0,  30.0,   0.1     ],
		[276.0,  560.0,  0.00889322,    0.03557289,    0.02352056,    173.0,  0.0,0.0,0.0,    0.0,1.0,-30.0,  30.0,   0.1     ],
		[276.0,  560.0,  0.00889157,    0.03556628,    0.02351619,    173.0,  0.0,0.0,0.0,    0.0,1.0,-30.0,  30.0,   0.1     ],
		[37.0,   290.0,  0.00112768,    0.01127678,    0.22770489,    898.0,  0.0,0.0,0.0,    0.0,1.0,-30.0,  30.0,   0.1     ],
		[290.0,  74.0,   0.00414344,    0.04143444,    0.83665966,    898.0,  0.0,0.0,0.0,    0.0,1.0,-30.0,  30.0,   0.1     ],
		[290.0,  74.0,   0.00414319,    0.0414319,     0.83660839,    898.0,  0.0,0.0,0.0,    0.0,1.0,-30.0,  30.0,   0.1     ],
		[37.0,   290.0,  0.0011259,     0.011259,      0.22734598,    898.0,  0.0,0.0,0.0,    0.0,1.0,-30.0,  30.0,   0.1     ],
		[512.0,  291.0,  0.00265967,    0.01063868,    0.02813689,    346.0,  0.0,0.0,0.0,    0.0,1.0,-30.0,  30.0,   0.1     ],
		[512.0,  291.0,  0.00266496,    0.01065983,    0.02819285,    346.0,  0.0,0.0,0.0,    0.0,1.0,-30.0,  30.0,   0.1     ],
		[78.0,   292.0,  0.0011638,     0.01163804,    0.23499969,    898.0,  0.0,0.0,0.0,    0.0,1.0,-30.0,  30.0,   0.1     ],
		[78.0,   292.0,  0.001163,      0.01162996,    0.23483654,    898.0,  0.0,0.0,0.0,    0.0,1.0,-30.0,  30.0,   0.1     ],
		[71.0,   74.0,   0.00390452,    0.03904524,    0.78841612,    898.0,  0.0,0.0,0.0,    0.0,1.0,-30.0,  30.0,   0.1     ],
		[74.0,   278.0,  0.00154224,    0.01542244,    0.55362774,    1197.0, 0.0,0.0,0.0,    0.0,1.0,-30.0,  30.0,   0.1     ],
		[74.0,   278.0,  0.00154245,    0.01542452,    0.55370232,    1197.0, 0.0,0.0,0.0,    0.0,1.0,-30.0,  30.0,   0.1     ],
		[32.0,   292.0,  0.00096794,    0.00967936,    0.34746542,    1197.0, 0.0,0.0,0.0,    0.0,1.0,-30.0,  30.0,   0.1     ],
		[503.0,  560.0,  0.00378512,    0.0151405,     0.16017272,    693.0,  0.0,0.0,0.0,    0.0,1.0,-30.0,  30.0,   0.1     ],
		[311.0,  280.0,  0.00034337,    0.00343369,    0.1232611,     1197.0, 0.0,0.0,0.0,    0.0,1.0,-30.0,  30.0,   0.1     ],
		[280.0,  278.0,  0.00097498,    0.00974977,    0.78748387,    1796.0, 0.0,0.0,0.0,    0.0,1.0,-30.0,  30.0,   0.1     ],
		[311.0,  32.0,   0.00241133,    0.02411334,    0.48690559,    898.0,  0.0,0.0,0.0,    0.0,1.0,-30.0,  30.0,   0.1     ],
		[557.0,  321.0,  0.00500298,    0.0200119,     0.05292694,    346.0,  0.0,0.0,0.0,    0.0,1.0,-30.0,  30.0,   0.1     ],
		[277.0,  65.0,   0.00188585,    0.01885849,    0.38079775,    898.0,  0.0,0.0,0.0,    0.0,1.0,-30.0,  30.0,   0.1     ],
		[322.0,  288.0,  0.001309,      0.01309003,    0.26431871,    898.0,  0.0,0.0,0.0,    0.0,1.0,-30.0,  30.0,   0.1     ],
		[322.0,  323.0,  0.00035076,    0.00350762,    0.07082712,    898.0,  0.0,0.0,0.0,    0.0,1.0,-30.0,  30.0,   0.1     ],
		[322.0,  323.0,  0.00037006,    0.0037006,     0.0747239,     898.0,  0.0,0.0,0.0,    0.0,1.0,-30.0,  30.0,   0.1     ],
		[277.0,  324.0,  0.00197195,    0.01971953,    0.39818407,    898.0,  0.0,0.0,0.0,    0.0,1.0,-30.0,  30.0,   0.1     ],
		[324.0,  325.0,  0.00110351,    0.01103509,    0.2228246,     898.0,  0.0,0.0,0.0,    0.0,1.0,-30.0,  30.0,   0.1     ],
		[277.0,  325.0,  0.00086657,    0.00866574,    0.17498191,    898.0,  0.0,0.0,0.0,    0.0,1.0,-30.0,  30.0,   0.1     ],
		[332.0,  78.0,   0.00129444,    0.01294437,    0.26137749,    898.0,  0.0,0.0,0.0,    0.0,1.0,-30.0,  30.0,   0.1     ],
		[322.0,  288.0,  0.001309,      0.01309003,    0.26431871,    898.0,  0.0,0.0,0.0,    0.0,1.0,-30.0,  30.0,   0.1     ],
		[324.0,  288.0,  0.00126274,    0.01262742,    0.1133234,     598.0,  0.0,0.0,0.0,    0.0,1.0,-30.0,  30.0,   0.1     ],
		[338.0,  559.0,  0.00230702,    0.0092281,     0.09762492,    693.0,  0.0,0.0,0.0,    0.0,1.0,-30.0,  30.0,   0.1     ],
		[339.0,  559.0,  0.00890149,    0.03560595,    0.02354242,    173.0,  0.0,0.0,0.0,    0.0,1.0,-30.0,  30.0,   0.1     ],
		[339.0,  340.0,  0.02177884,    0.08711537,    0.23040041,    346.0,  0.0,0.0,0.0,    0.0,1.0,-30.0,  30.0,   0.1     ],
		[559.0,  340.0,  0.05245818,    0.20983273,    0.13874,       173.0,  0.0,0.0,0.0,    0.0,1.0,-30.0,  30.0,   0.1     ],
		[341.0,  292.0,  9.329e-05,     0.00093294,    0.07535316,    1796.0, 0.0,0.0,0.0,    0.0,1.0,-30.0,  30.0,   0.1     ],
		[338.0,  559.0,  0.00461405,    0.0184562,     0.04881246,    346.0,  0.0,0.0,0.0,    0.0,1.0,-30.0,  30.0,   0.1     ],
		[557.0,  342.0,  0.00302595,    0.0121038,     0.03201181,    346.0,  0.0,0.0,0.0,    0.0,1.0,-30.0,  30.0,   0.1     ],
		[558.0,  343.0,  0.00266256,    0.01065025,    0.11266997,    693.0,  0.0,0.0,0.0,    0.0,1.0,-30.0,  30.0,   0.1     ],
		[502.0,  340.0,  0.01086926,    0.04347702,    0.11498688,    346.0,  0.0,0.0,0.0,    0.0,1.0,-30.0,  30.0,   0.1     ],
		[502.0,  340.0,  0.01086876,    0.04347504,    0.11498163,    346.0,  0.0,0.0,0.0,    0.0,1.0,-30.0,  30.0,   0.1     ],
		[72.0,   32.0,   0.00135107,    0.01351073,    0.48500226,    1197.0, 0.0,0.0,0.0,    0.0,1.0,-30.0,  30.0,   0.1     ],
		[72.0,   32.0,   0.001351,      0.01351004,    0.4849774,     1197.0, 0.0,0.0,0.0,    0.0,1.0,-30.0,  30.0,   0.1     ],
		[344.0,  345.0,  5.763e-05,     0.00057629,    0.04654687,    1796.0, 0.0,0.0,0.0,    0.0,1.0,-30.0,  30.0,   0.1     ],
		[346.0,  47.0,   0.0001134,     0.001134,      0.04070792,    1197.0, 0.0,0.0,0.0,    0.0,1.0,-30.0,  30.0,   0.1     ],
		[46.0,   47.0,   8.975e-05,     0.00089751,    0.0322183,     1197.0, 0.0,0.0,0.0,    0.0,1.0,-30.0,  30.0,   0.1     ],
		[346.0,  345.0,  7.218e-05,     0.00072178,    0.02591013,    1197.0, 0.0,0.0,0.0,    0.0,1.0,-30.0,  30.0,   0.1     ],
		[363.0,  344.0,  2.663e-05,     0.00026627,    0.00955859,    1197.0, 0.0,0.0,0.0,    0.0,1.0,-30.0,  30.0,   0.1     ],
		[332.0,  78.0,   0.00129421,    0.01294206,    0.26133088,    898.0,  0.0,0.0,0.0,    0.0,1.0,-30.0,  30.0,   0.1     ],
		[37.0,   49.0,   0.0016876,     0.01687604,    0.15145211,    598.0,  0.0,0.0,0.0,    0.0,1.0,-30.0,  30.0,   0.1     ],
		[37.0,   49.0,   0.0016883,     0.01688296,    0.15151426,    598.0,  0.0,0.0,0.0,    0.0,1.0,-30.0,  30.0,   0.1     ],
...